data_test
_audit_creation_method            'gchemol'
_symmetry_space_group_name_H-M    'P1'
_symmetry_Int_Tables_number       1
_symmetry_cell_setting            triclinic

loop_
_symmetry_equiv_pos_as_xyz
 x,y,z
_cell_length_a        11.6009
_cell_length_b        11.6009
_cell_length_c        11.6009
_cell_angle_alpha     60.0000
_cell_angle_beta      60.0000
_cell_angle_gamma     60.0000

loop_
_atom_site_type_symbol
_atom_site_label
_atom_site_fract_x
_atom_site_fract_y
_atom_site_fract_z
Si  Si0        0.08333     0.08333     0.08333
Si  Si1        0.00000     0.00000     0.00000
Si  Si0        0.08333     0.08333     0.41667
Si  Si1        0.00000    -0.00000     0.33333
Si  Si0        0.08333     0.08333     0.75000
Si  Si1        0.00000    -0.00000     0.66667
Si  Si0        0.08333     0.41667     0.08333
Si  Si1        0.00000     0.33333     0.00000
Si  Si0        0.08333     0.41667     0.41667
Si  Si1       -0.00000     0.33333     0.33333
Si  Si0        0.08333     0.41667     0.75000
Si  Si1        0.00000     0.33333     0.66667
Si  Si0        0.08333     0.75000     0.08333
Si  Si1        0.00000     0.66667     0.00000
Si  Si0        0.08333     0.75000     0.41667
Si  Si1        0.00000     0.66667     0.33333
Si  Si0        0.08333     0.75000     0.75000
Si  Si1       -0.00000     0.66667     0.66667
Si  Si0        0.41667     0.08333     0.08333
Si  Si1        0.33333     0.00000     0.00000
Si  Si0        0.41667     0.08333     0.41667
Si  Si1        0.33333    -0.00000     0.33333
Si  Si0        0.41667     0.08333     0.75000
Si  Si1        0.33333    -0.00000     0.66667
Si  Si0        0.41667     0.41667     0.08333
Si  Si1        0.33333     0.33333     0.00000
Si  Si0        0.41667     0.41667     0.41667
Si  Si1        0.33333     0.33333     0.33333
Si  Si0        0.41667     0.41667     0.75000
Si  Si1        0.33333     0.33333     0.66667
Si  Si0        0.41667     0.75000     0.08333
Si  Si1        0.33333     0.66667     0.00000
Si  Si0        0.41667     0.75000     0.41667
Si  Si1        0.33333     0.66667     0.33333
Si  Si0        0.41667     0.75000     0.75000
Si  Si1        0.33333     0.66667     0.66667
Si  Si0        0.75000     0.08333     0.08333
Si  Si1        0.66667     0.00000     0.00000
Si  Si0        0.75000     0.08333     0.41667
Si  Si1        0.66667    -0.00000     0.33333
Si  Si0        0.75000     0.08333     0.75000
Si  Si1        0.66667    -0.00000     0.66667
Si  Si0        0.75000     0.41667     0.08333
Si  Si1        0.66667     0.33333     0.00000
Si  Si0        0.75000     0.41667     0.41667
Si  Si1        0.66667     0.33333     0.33333
Si  Si0        0.75000     0.41667     0.75000
Si  Si1        0.66667     0.33333     0.66667
Si  Si0        0.75000     0.75000     0.08333
Si  Si1        0.66667     0.66667     0.00000
Si  Si0        0.75000     0.75000     0.41667
Si  Si1        0.66667     0.66667     0.33333
Si  Si0        0.75000     0.75000     0.75000
Si  Si1        0.66667     0.66667     0.66667
